sectionalized/peak_load/40pc/TNB_DUMA_VLN.Txt

SYMMETRICAL COMPONENT VOLTAGES BY BUS (for 3-phase buses)

Bus               Mag:   V1 (kV)    p.u.     V2 (kV)   %V2/V1    V0 (kV)    %V0/V1

ppu_duma_33kv        19.03     0.9987  9.275E-009  4.874E-008 1.239E-009 6.513E-009
ppu_duma_11kv_a      6.284     0.9896  3.26E-009  5.188E-008 2.14E-011 3.404E-010
ppu_duma_11kv_b      6.249      0.984  3.245E-009  5.192E-008 3.355E-011 5.368E-010
rpplngi2              6.28     0.9888  3.259E-009  5.189E-008 3.461E-011 5.511E-010
pdtjlnmasjid         6.303     0.9924  3.269E-009  5.187E-008 3.56E-011 5.648E-010
bella                6.318     0.9948  3.276E-009  5.185E-008 3.634E-011 5.753E-010
pstpdgn              6.326      0.996  3.279E-009  5.184E-008 3.674E-011 5.808E-010
atria_1              6.309     0.9934  3.272E-009  5.186E-008 3.469E-011 5.499E-010
hawker               6.319     0.9949  3.276E-009  5.185E-008 4.695E-011 7.43E-010
duma7                6.264     0.9863  3.252E-009  5.191E-008 3.41E-011 5.444E-010
haus                 6.302     0.9923  3.269E-009  5.187E-008 5.839E-011 9.266E-010
duma6                6.408      1.009  3.318E-009  5.178E-008 1.769E-010 2.76E-009
duma13               6.509      1.025  3.365E-009  5.169E-008 2.99E-010 4.594E-009
ssu_duma5_im2         6.52      1.027  3.37E-009  5.168E-008 3.004E-010 4.608E-009
pdtlitrak            6.362      1.002  3.297E-009  5.182E-008 3.637E-011 5.717E-010
duma12               6.408      1.009  3.318E-009  5.178E-008 3.817E-011 5.957E-010
tmngh4               6.454      1.016  3.339E-009  5.173E-008 6.327E-011 9.803E-010
ssu_tmegah3_ir1      6.472      1.019  3.347E-009  5.172E-008 7.632E-011 1.179E-009
tmngh2               6.479       1.02  3.351E-009  5.171E-008 8.189E-011 1.264E-009
ssu_uptwres_im2      6.261     0.9859  3.25E-009  5.191E-008 3.793E-011 6.057E-010
maybank              6.287       0.99  3.262E-009  5.189E-008 3.896E-011 6.196E-010
duma8                6.292     0.9908  3.264E-009  5.188E-008 4.07E-011 6.469E-010
duma9                6.314     0.9943  3.274E-009  5.186E-008 3.535E-011 5.598E-010
duma1                6.341     0.9985  3.286E-009  5.183E-008 3.638E-011 5.737E-010
elite                6.351          1  3.291E-009  5.182E-008 3.678E-011 5.791E-010
pamdra               6.289     0.9903  3.263E-009  5.188E-008 2.145E-011 3.41E-010
duma4                6.306     0.9929  3.27E-009  5.186E-008 2.817E-011 4.468E-010
plsdra                6.34     0.9984  3.286E-009  5.183E-008 5.31E-011 8.375E-010
prmte                6.292     0.9907  3.264E-009  5.187E-008 4.173E-011 6.633E-010
prmta                6.294      0.991  3.265E-009  5.187E-008 4.212E-011 6.692E-010
pmontb               6.298     0.9918  3.267E-009  5.187E-008 4.523E-011 7.181E-010
plngi_b              6.312     0.9939  3.273E-009  5.185E-008 2.17E-011 3.438E-010
plngi_d              6.328     0.9964  3.28E-009  5.183E-008 2.19E-011 3.461E-010
sprk9                6.341     0.9985  3.286E-009  5.182E-008 2.493E-011 3.932E-010
bomba                6.345     0.9991  3.288E-009  5.182E-008 2.715E-011 4.279E-010
sprk8                6.356      1.001  3.293E-009  5.181E-008 3.424E-011 5.387E-010
ssu_dsarcntr_ir1       6.3     0.9919  3.267E-009  5.186E-008 2.149E-011 3.411E-010
duma10               6.343     0.9988  3.287E-009  5.182E-008 2.261E-011 3.565E-010
balaipolis           6.344     0.9989  3.287E-009  5.182E-008 2.263E-011 3.568E-010
ssu_uptwres_ir1      6.343     0.9988  3.287E-009  5.182E-008 5.348E-011 8.431E-010
ppu_duma_vcb1            0          0          0          0         0         0
